50

C	2.4560000	-2.8359400	0.0000000
C	3.6880000	-4.9698266	0.0000000
C	4.9200000	-7.1037132	0.0000000
C	6.1520000	-9.2375998	0.0000000
C	7.3840000	-11.3714864	0.0000000
C	3.6880000	-0.7020534	0.0000000
C	4.9200000	-2.8359400	0.0000000
C	6.1520000	-4.9698266	0.0000000
C	7.3840000	-7.1037132	0.0000000
C	8.6160000	-9.2375998	0.0000000
C	4.9200000	1.4318332	0.0000000
C	6.1520000	-0.7020534	0.0000000
C	7.3840000	-2.8359400	0.0000000
C	8.6160000	-4.9698266	0.0000000
C	9.8480000	-7.1037132	0.0000000
C	6.1520000	3.5657198	0.0000000
C	7.3840000	1.4318332	0.0000000
C	8.6160000	-0.7020534	0.0000000
C	9.8480000	-2.8359400	0.0000000
C	11.0800000	-4.9698266	0.0000000
C	7.3840000	5.6996064	0.0000000
C	8.6160000	3.5657198	0.0000000
C	9.8480000	1.4318332	0.0000000
C	11.0800000	-0.7020534	0.0000000
C	12.3120000	-2.8359400	0.0000000
C	3.6840000	-2.1269600	0.0000000
C	4.9160000	-4.2608466	0.0000000
C	6.1480000	-6.3947332	0.0000000
C	7.3800000	-8.5286198	0.0000000
C	8.6120000	-10.6625064	0.0000000
C	4.9160000	0.0069266	0.0000000
C	6.1480000	-2.1269600	0.0000000
C	7.3800000	-4.2608466	0.0000000
C	8.6120000	-6.3947332	0.0000000
C	9.8440000	-8.5286198	0.0000000
C	6.1480000	2.1408132	0.0000000
C	7.3800000	0.0069266	0.0000000
C	8.6120000	-2.1269600	0.0000000
C	9.8440000	-4.2608466	0.0000000
C	11.0760000	-6.3947332	0.0000000
C	7.3800000	4.2746998	0.0000000
C	8.6120000	2.1408132	0.0000000
C	9.8440000	0.0069266	0.0000000
C	11.0760000	-2.1269600	0.0000000
C	12.3080000	-4.2608466	0.0000000
C	8.6120000	6.4085864	0.0000000
C	9.8440000	4.2746998	0.0000000
C	11.0760000	2.1408132	0.0000000
C	12.3080000	0.0069266	0.0000000
C	13.5400000	-2.1269600	0.0000000
